  
<<<<<<< HEAD
       XFOIL         Version 6.97
=======
       XFOIL         Version 6.99
>>>>>>> Fix plotting.
  
 Calculated polar for: af                                              
  
 1 1 Reynolds number fixed          Mach number fixed         
  
 xtrf =   1.000 (top)        1.000 (bottom)  
<<<<<<< HEAD
 Mach =   0.010     Re =     1.800 e 6     Ncrit =   9.000
  
   alpha    CL        CD       CDp       CM     Top_Xtr  Bot_Xtr
  ------ -------- --------- --------- -------- -------- --------
   0.000   0.6469   0.00800   0.00182  -0.1299   0.5093   0.0456
=======
 Mach =   0.010     Re =     1.800 e 6     Ncrit =   9.000  9.000
  
   alpha    CL        CD       CDp       CM     Top_Xtr  Bot_Xtr  Top_Itr  Bot_Itr
  ------ -------- --------- --------- -------- -------- -------- -------- --------
   0.000   0.0110   0.00597   0.00016   0.0165   0.4308   0.6722  42.3144 162.0971
>>>>>>> Fix plotting.
